baremetal-mkinitrd.sh
bin/diskimage_builder
bin/disk-image-create
bin/disk-image-get-kernel
bin/element-info
bin/ramdisk-image-create
diskimage_builder/elements.py
diskimage_builder/__init__.py
diskimage_builder/test_elementdeps.py
diskimage_builder/test_elements.py
docs/ci.md
doc/source/conf.py
doc/source/index.rst
elements/apache2/element-deps
elements/apache2/install.d/15-apache2
elements/apache2/os-apply-config/etc/ssl/certs/ssl-cert-snakeoil.pem
elements/apache2/os-apply-config/etc/ssl/private/ssl-cert-snakeoil.key
elements/apache2/os-config-applier/etc/ssl/certs/ssl-cert-snakeoil.pem
elements/apache2/os-config-applier/etc/ssl/private/ssl-cert-snakeoil.key
elements/apache2/os-refresh-config/post-configure.d/15-apache2
elements/apache2/post-install.d/15-apache2
elements/apache2/pre-install.d/15-apache2
elements/base/bin/dib-run-parts
elements/base/bin/install-packages
elements/base/extra-data.d/50-store-build-settings
elements/base/install.d/00-baseline-environment
elements/base/install.d/10-cloud-init
elements/base/install.d/50-store-build-settings
elements/base/pre-install.d/00-baseline-tools
elements/base/pre-install.d/00-disable-apt-recommends
elements/base/pre-install.d/01-baseline-tools
elements/base/pre-install.d/01-install-bin
elements/base/pre-install.d/02-baseline-tools
elements/base/pre-install.d/99-apt-get-update
elements/bm-dnsmasq/bin/filter-bootps
elements/bm-dnsmasq/element-deps
elements/bm-dnsmasq/install.d/75-filter-bootps-cronjob
elements/bm-dnsmasq/install.d/81-bm-dnsmasq
elements/bm-dnsmasq/os-refresh-config/post-configure.d/80-bm-dnsmasq
elements/boot-stack/bin/boot-stack-logs
elements/boot-stack/bin/init-keystone
elements/boot-stack/bin/init-neutron
elements/boot-stack/bin/init-nova
elements/boot-stack/bin/init-quantum
elements/boot-stack/bin/reset-db
elements/boot-stack/bin/reset-keystone
elements/boot-stack/bin/reset-nova
elements/boot-stack/bin/reset-quantum
elements/boot-stack/bin/wipe-openstack
elements/boot-stack/config.json
elements/boot-stack/element-deps
elements/boot-stack/first-boot.d/97-fedora-iptables
elements/boot-stack/first-boot.d/98-boot-stack
elements/boot-stack/first-boot.d/98-fedora-iptables
elements/boot-stack/first-boot.d/99-boot-stack
elements/boot-stack/install.d/01-boot-stack
elements/boot-stack/os-apply-config/root/stackrc
elements/boot-stack/os-refresh-config/configure.d/51-init-openstack
elements/boot-stack/os-refresh-config/configure.d/52-init-openstack
elements/boot-stack/os-refresh-config/configure.d/53-init-openstack
elements/boot-stack/os-refresh-config/configure.d/85-init-neutron
elements/boot-stack/os-refresh-config/pre-configure.d/97-fedora-iptables
elements/boot-stack/stackrc
elements/ceilometer-agent-central/element-deps
elements/ceilometer-agent-central/install.d/69-ceilometer-agent-central
elements/ceilometer-agent-central/os-refresh-config/post-configure.d/69-ceilometer-agent-central
elements/ceilometer-agent-compute/element-deps
elements/ceilometer-agent-compute/install.d/69-ceilometer-agent-compute
elements/ceilometer-agent-compute/os-refresh-config/post-configure.d/69-ceilometer-agent-compute
elements/ceilometer-agent-notification/element-deps
elements/ceilometer-agent-notification/install.d/69-ceilometer-agent-notification
elements/ceilometer-agent-notification/os-refresh-config/post-configure.d/69-ceilometer-agent-notification
elements/ceilometer-api/element-deps
elements/ceilometer-api/install.d/69-ceilometer-api
elements/ceilometer-api/os-refresh-config/configure.d/90-ceilometer-db-sync
elements/ceilometer-api/os-refresh-config/post-configure.d/69-ceilometer-api
elements/ceilometer-api/os-refresh-config/pre-configure.d/97-fedora-ceilometer-api-iptables
elements/ceilometer-collector/element-deps
elements/ceilometer-collector/install.d/69-ceilometer-collector
elements/ceilometer-collector/os-refresh-config/post-configure.d/69-ceilometer-collector
elements/ceilometer/element-deps
elements/ceilometer/environment.d/10-ceilometer-venv-dir.bash
elements/ceilometer/install.d/68-ceilometer
elements/ceilometer/os-apply-config/etc/ceilometer/ceilometer.conf
elements/ceilometer-overcloud-config/element-deps
elements/ceilometer-overcloud-config/os-apply-config/etc/ceilometer/pipeline.yaml
elements/ceilometer/source-repository-ceilometer
elements/ceilometer-undercloud-config/element-deps
elements/ceilometer-undercloud-config/os-apply-config/etc/ceilometer/pipeline.yaml
elements/check_mk-agent/element-deps
elements/check_mk-agent/install.d/05-check_mk-agent
elements/check_mk-agent/install.d/99-check_mk_local_checks
elements/check_mk-agent/os-refresh-config/pre-configure.d/97-check-mk-agent-iptables
elements/cinder-api/element-deps
elements/cinder-api/install.d/73-cinder-api
elements/cinder-api/install.d/cinder-source-install/73-cinder-api
elements/cinder-api/os-refresh-config/configure.d/90-cinder-db-sync
elements/cinder-api/os-refresh-config/post-configure.d/73-cinder-api
elements/cinder-api/os-refresh-config/pre-configure.d/97-cinder-api-iptables
elements/cinder-config/config/etc/cinder/api-paste.ini
elements/cinder-config/config/etc/cinder/cinder.conf
elements/cinder-config/config/etc/cinder/policy.json
elements/cinder-config/config/etc/cinder/rootwrap.conf
elements/cinder-config/config/etc/cinder/rootwrap.d/volume.filters
elements/cinder-config/config/etc/default/iscsitarget
elements/cinder-config/element-deps
elements/cinder-config/install.d/01-cinder-config
elements/cinder/element-deps
elements/cinder/environment.d/10-cinder-venv-dir.bash
elements/cinder/install.d/72-cinder
elements/cinder/install.d/73-cinder
elements/cinder/install.d/cinder-package-install/72-cinder
elements/cinder/install.d/cinder-packge-install/72-cinder
elements/cinder/install.d/cinder-source-install/72-cinder
elements/cinder-lio/element-deps
elements/cinder-lio/install.d/72-cinder-lio
elements/cinder-lio/install.d/cinder-source-install/73-cinder-rtstool
elements/cinder/migration
elements/cinder/os-apply-config/etc/cinder/cinder.conf
elements/cinder/os-apply-config/etc/cinder/rootwrap.conf
elements/cinder/os-apply-config/etc/cinder/rootwrap.d/passthrough.conf
elements/cinder/os-config-applier/etc/cinder/api-paste.ini
elements/cinder/os-config-applier/etc/cinder/cinder.conf
elements/cinder/os-config-applier/etc/cinder/policy.json
elements/cinder/os-config-applier/etc/cinder/rootwrap.conf
elements/cinder/os-config-applier/etc/cinder/rootwrap.d/volume.filters
elements/cinder/os-config-applier/etc/default/iscsitarget
elements/cinder/os-refresh-config/migration.d/72-cinder-resize-volume-groups
elements/cinder/os-refresh-config/post-configure.d/72-cinder
elements/cinder/os-refresh-config/pre-configure.d/72-cinder
elements/cinder/os-refresh-config/pre-configure.d/97-cinder-fedora-iptables
elements/cinder/post-configure
elements/cinder/pre-configure
elements/cinder/pre-install.d/00-cinder-disable-requiretty
elements/cinder/source-repository-cinder
elements/cinder-tgt/element-deps
elements/cinder-tgt/install.d/72-cinder-tgt
elements/cinder-tgt/os-refresh-config/post-configure.d/74-cinder-tgt
elements/cinder-volume/element-deps
elements/cinder-volume/install.d/74-cinder-volume
elements/cinder-volume/install.d/cinder-source-install/74-cinder-volume
elements/cinder-volume/os-apply-config/etc/cinder/shares.txt
elements/cinder-volume/os-refresh-config/migration.d/72-cinder-resize-volume-groups
elements/cinder-volume/os-refresh-config/post-configure.d/70-cinder-conversion-dir
elements/cinder-volume/os-refresh-config/post-configure.d/72-cinder-resize-volume-groups
elements/cinder-volume/os-refresh-config/post-configure.d/74-cinder-volume
elements/cinder-volume/os-refresh-config/pre-configure.d/97-cinder-volume-iptables
elements/cinder-volume/pkg-map
elements/cloud-init-nocloud/install.d/05-set-cloud-init-sources
elements/collectl/element-deps
elements/collectl/install.d/85-collectl
elements/common-venv/environment.d/01-common-venv-dir.bash
elements/config-applier/install.d/20-config-applier
elements/config-applier/install.d/config-applier.upstart
elements/corosync/element-deps
elements/corosync/install.d/14-corosync
elements/corosync/os-apply-config/etc/corosync/corosync.conf
elements/corosync/os-apply-config/etc/default/corosync
elements/corosync/os-refresh-config/post-configure.d/14-corosync
elements/debian-mirror/element-deps
elements/debian-mirror/install.d/82-debmirror
elements/debian-mirror/os-apply-config/etc/apt/mirror.list
elements/deploy/binary-deps
elements/deploy/init
elements/devstack/block-device-size.d/10-size
elements/devstack/element-deps
elements/devstack/install.d/50-user
elements/devstack/install.d/51-grub
elements/devstack/install.d/52-image-toolchain
elements/devstack/install.d/53-devstack
elements/devstack/install.d/97-haveged
elements/devstack/install.d/98-baremetal-network
elements/devstack/install.d/99-ssh
elements/devstack/source-repository-devstack
elements/devstack/source-repository-incubator
elements/dhcp-all-interfaces/install.d/50-dhcp-all-interfaces
elements/dhcp-all-interfaces/install.d/dhcp-all-interfaces.conf
elements/dhcp-all-interfaces/install.d/generate-interfaces-file.sh
elements/dib-run-parts/root.d/90-base-dib-run-parts
elements/dib-run-parts/root.d/dib-run-parts
elements/diskimage-builder/element-deps
elements/diskimage-builder/install.d/55-diskimage-builder
elements/diskimage-builder/source-repository-diskimage-builder
elements/dpkg/bin/install-packages
elements/dpkg/cleanup.d/40-unblock-daemons
elements/dpkg/cleanup.d/50-remove-img-build-proxy
elements/dpkg/pre-install.d/00-disable-apt-recommends
elements/dpkg/pre-install.d/01-install-bin
elements/dpkg/pre-install.d/99-apt-get-update
elements/dpkg/root.d/50-build-with-http-cache
elements/dpkg/root.d/60-block-apt-translations
elements/dpkg/root.d/99-block-daemons
elements/fedora/bin/install-packages
elements/fedora/bin/map-packages
elements/fedora/element-deps
elements/fedora/install.d/00-lsb
elements/fedora/pre-install.d/01-install-bin
elements/fedora/pre-install.d/01-override-yum-arch
elements/fedora/pre-install.d/15-fedora-fixup-grub-cfg
elements/fedora-rdo-icehouse/element-deps
elements/fedora-rdo-icehouse/environment.d/01-rdo-packages.bash
elements/fedora-rdo-icehouse/pre-install.d/10-rdo-icehouse-repo
elements/fedora-rdo-icehouse-repository/element-deps
elements/fedora-rdo-icehouse-repository/environment.d/02-rdo-release.bash
elements/fedora-rdo-icehouse-repository/pre-install.d/10-rdo-icehouse-repo
elements/fedora/root.d/10-fedora-cloud-image
elements/geard/element-deps
elements/geard/install.d/44-geard
elements/geard/os-refresh-config/pre-configure.d/97-gearman-iptables
elements/gearman/element-deps
elements/gearman/install.d/14-gearman
elements/gearman/os-refresh-config/pre-configure.d/97-gearman-iptables
elements/glance-api/element-deps
elements/glance-api/first-boot.d/05-glance-api
elements/glance-api/first-boot.d/etc_init_glance-api.conf
elements/glance-api/install.d/05-glance-api
elements/glance/element-deps
elements/glance/environment.d/10-glance-venv-dir.bash
elements/glance/install.d/75-glance
elements/glance/install.d/glance-package-install/75-glance
elements/glance/install.d/glance-source-install/75-glance
elements/glance/os-apply-config/etc/glance/glance-api.conf
elements/glance/os-apply-config/etc/glance/glance-cache.conf
elements/glance/os-apply-config/etc/glance/glance-registry.conf
elements/glance/os-apply-config/etc/glance/glance-scrubber.conf
elements/glance/os-config-applier/etc/glance/glance-api.conf
elements/glance/os-config-applier/etc/glance/glance-api-paste.ini
elements/glance/os-config-applier/etc/glance/glance-cache.conf
elements/glance/os-config-applier/etc/glance/glance-registry.conf
elements/glance/os-config-applier/etc/glance/glance-registry-paste.ini
elements/glance/os-config-applier/etc/glance/glance-scrubber.conf
elements/glance/os-config-applier/etc/glance/logging.conf
elements/glance/os-config-applier/etc/glance/policy.json
elements/glance/os-config-applier/etc/glance/schema-image.json
elements/glance/os-refresh-config/configure.d/10-glance-state
elements/glance/os-refresh-config/configure.d/20-glance-selinux
elements/glance/os-refresh-config/configure.d/90-glance-db-sync
elements/glance/os-refresh-config/post-configure.d/75-glance
elements/glance/os-refresh-config/pre-configure.d/97-glance-fedora-iptables
elements/glance/source-repository-glance
elements/haproxy/element-deps
elements/haproxy/install.d/76-haproxy
elements/haproxy/os-apply-config/etc/haproxy/haproxy.cfg
elements/haproxy/os-config-applier/etc/haproxy/haproxy.cfg
elements/haproxy/os-refresh-config/configure.d/20-haproxy-nonlocal-bind
elements/haproxy/os-refresh-config/configure.d/20-haproxy-selinux
elements/haproxy/os-refresh-config/configure.d/21-haproxy
elements/haproxy/os-refresh-config/configure.d/75-haproxy-nonlocal-bind
elements/haproxy/os-refresh-config/post-configure.d/20-haproxy
elements/haproxy/os-refresh-config/pre-configure.d/98-haproxy-iptables
elements/heat-api/element-deps
elements/heat-api/install.d/10-heat-api
elements/heat-api/install.d/heat-package-install/10-heat-api
elements/heat-api/install.d/heat-source-install/10-heat-api
elements/heat-api/os-config-applier/etc/heat/api-paste.ini
elements/heat-api/os-config-applier/etc/heat/heat-api-cfn.conf
elements/heat-api/os-config-applier/etc/heat/heat-api-cfn-paste.ini
elements/heat-api/os-config-applier/etc/heat/heat-api-cloudwatch.conf
elements/heat-api/os-config-applier/etc/heat/heat-api-cloudwatch-paste.ini
elements/heat-api/os-config-applier/etc/heat/heat-api.conf
elements/heat-api/os-config-applier/etc/heat/heat-api-paste.ini
elements/heat-api/os-refresh-config/post-configure.d/79-heat-api
elements/heat-api/os-refresh-config/pre-configure.d/97-heat-api-fedora-iptables
elements/heat-cfntools/element-deps
elements/heat-cfntools/install.d/05-heat-cfntools
elements/heat-cfntools/install.d/10-ec2-user
elements/heat-cfntools/os-config-applier/etc/cfn/cfn-credentials
elements/heat-cfntools/os-config-applier/etc/cfn/cfn-hup.conf
elements/heat-cfntools/os-config-applier/etc/cfn/hooks.conf
elements/heat-cfntools/source-repository-heat-cfntools
elements/heat/element-deps
elements/heat-engine/element-deps
elements/heat-engine/install.d/10-heat-engine
elements/heat-engine/install.d/20-heat-crontab
elements/heat-engine/install.d/heat-package-install/10-heat-engine
elements/heat-engine/install.d/heat-source-install/10-heat-engine
elements/heat-engine/os-config-applier/etc/heat/heat-engine.conf
elements/heat-engine/os-refresh-config/configure.d/90-heat-db-sync
elements/heat-engine/os-refresh-config/post-configure.d/79-heat-engine
elements/heat/environment.d/10-heat-venv-dir.bash
elements/heat/install.d/05-heat
elements/heat/install.d/heat-package-install/05-heat
elements/heat/install.d/heat-source-install/05-heat
elements/heat-jeos/install.d/05-heat-jeos
elements/heat-jeos/install.d/10-ec2-user
elements/heat-localip/element-deps
elements/heat-localip/install.d/74-heat-localip
elements/heat-localip/os-refresh-config/configure.d/49-heat-localip
elements/heat/os-apply-config/etc/heat/heat.conf
elements/heat/os-config-applier/etc/heat/heat.conf
elements/heat/os-config-applier/etc/heat/policy.json
elements/heat/source-repository-heat
elements/horizon/element-deps
elements/horizon/environment.d/10-horizon-venv-dir.bash
elements/horizon/files/horizon.conf
elements/horizon/files/ports.conf
elements/horizon/install.d/100-horizon
elements/horizon/install.d/horizon-package-install/100-horizon
elements/horizon/install.d/horizon-source-install/100-horizon
elements/horizon/os-apply-config/etc/horizon/local_settings.py
elements/horizon/os-apply-config/etc/horizon/.secret_key_store
elements/horizon/os-apply-config/etc/httpd/conf.d/horizon.conf
elements/horizon/os-apply-config/opt/stack/venvs/horizon/lib/python2.7/site-packages/openstack_dashboard/local/local_settings.py
elements/horizon/os-refresh-config/environment.d/10-horizon-venv-dir.bash
elements/horizon/os-refresh-config/post-configure.d/100-horizon
elements/horizon/os-refresh-config/post-configure.d/14-horizon
elements/horizon/os-refresh-config/pre-configure.d/97-horizon-fedora-iptables
elements/horizon/post-install.d/100-horizon-post-install
elements/horizon/source-repository-horizon
elements/hosts/element-deps
elements/hosts/os-apply-config/var/run/hosts.d/tail
elements/hosts/os-refresh-config/configure.d/51-hosts
elements/hwburnin/binary-deps
elements/hwburnin/init
elements/hwdiscovery/binary-deps
elements/hwdiscovery/init
elements/hwdiscovery/install.d/10-hwinfo
elements/icinga-core/install.d/05-icinga-core
elements/icinga-web/install.d/06-icinga-web
elements/__init__.py
elements/iptables/bin/add-rule
elements/iptables/bin/os-iptables-stateful
elements/ironic-api/element-deps
elements/ironic-api/os-apply-config/etc/ironic/logging-api.conf
elements/ironic-api/os-refresh-config/configure.d/90-ironic-db-sync
elements/ironic-api/os-refresh-config/post-configure.d/68-ironic-api
elements/ironic-api/os-refresh-config/pre-configure.d/97-fedora-ironic-api-iptables
elements/ironic-api/post-install.d/68-ironic-api
elements/ironic-conductor/element-deps
elements/ironic-conductor/install.d/68-ironic-conductor
elements/ironic-conductor/install.d/68-ironic-tftp-support
elements/ironic-conductor/os-apply-config/etc/ironic/logging-conductor.conf
elements/ironic-conductor/os-apply-config/mnt/state/var/lib/ironic/virtual-power-key
elements/ironic-conductor/os-refresh-config/post-configure.d/68-ironic-conductor
elements/ironic-conductor/post-install.d/68-ironic-conductor
elements/ironic/element-deps
elements/ironic/environment.d/10-ironic-venv-dir.bash
elements/ironic/install.d/68-ironic
elements/ironic/os-apply-config/etc/ironic/ironic.conf
elements/ironic/post-install.d/68-ironic
elements/ironic/pre-install.d/00-disable-requiretty
elements/ironic/pre-install.d/00-ironic-disable-requiretty
elements/ironic/source-repository-ironic
elements/jenkins/first-boot.d/10-jenkins
elements/jenkins/install.d/10-jenkins
elements/jenkins/install.d/11-jenkins-plugins
elements/jenkins/install.d/defaults
elements/jenkins/pre-install.d/10-jenkins
elements/keepalived/install.d/76-keepalived
elements/keepalived/os-apply-config/etc/keepalived/keepalived.conf
elements/keepalived/os-config-applier/etc/keepalived/keepalived.conf
elements/keepalived/os-refresh-config/configure.d/20-keepalived-selinux
elements/keepalived/os-refresh-config/configure.d/22-keepalived
elements/keepalived/os-refresh-config/post-configure.d/15-keepalived
elements/keystone/cleanup-keystone-tokens.sh
elements/keystone-config/element-deps
elements/keystone-config/os-config-applier/etc/keystone/keystone.conf
elements/keystone-config/os-config-applier/etc/keystone/logging.conf
elements/keystone-config/os-config-applier/etc/keystone/policy.json
elements/keystone/element-deps
elements/keystone/environment.d/10-keystone-venv-dir.bash
elements/keystone/first-boot.d/05-keystone
elements/keystone/first-boot.d/etc_init_keystone.conf
elements/keystone/install.d/05-keystone
elements/keystone/install.d/70-keystone
elements/keystone/install.d/keystone-package-install/05-keystone
elements/keystone/install.d/keystone-source-install/05-keystone
elements/keystone/install.d/keystone-source-install/70-keystone
elements/keystone/keystone.crontab
elements/keystone/os-apply-config/etc/keystone/keystone.conf
elements/keystone/os-apply-config/etc/keystone/keystone-paste.ini
elements/keystone/os-apply-config/mnt/state/etc/keystone/ssl/certs/ca.pem
elements/keystone/os-apply-config/mnt/state/etc/keystone/ssl/certs/signing_cert.pem
elements/keystone/os-apply-config/mnt/state/etc/keystone/ssl/private/signing_key.pem
elements/keystone/os-config-applier/etc/keystone/keystone.conf
elements/keystone/os-config-applier/etc/keystone/logging.conf
elements/keystone/os-config-applier/etc/keystone/policy.json
elements/keystone/os-refresh-config/configure.d/10-keystone-state
elements/keystone/os-refresh-config/configure.d/20-keystone-selinux
elements/keystone/os-refresh-config/configure.d/90-keystone-db-sync
elements/keystone/os-refresh-config/post-configure.d/70-keystone
elements/keystone/os-refresh-config/pre-configure.d/97-keystone-fedora-iptables
elements/keystone/post-configure
elements/keystone/source-repository-keystone
elements/localboot/cleanup.d/99-adjust-grub-conf
elements/localboot/element-deps
elements/localboot/element-provides
elements/localboot/install.d/99-grub
elements/localboot/os-refresh-config/configure.d/01-install-grub
elements/local-config/extra-data.d/62-ssh-key
elements/local-config/install.d/61-http-proxy
elements/local-config/install.d/62-ssh-key
elements/mariadb-common/element-deps
elements/mariadb-common/install.d/11-mariadb
elements/mariadb-common/os-refresh-config/post-configure.d/40-mariadb
elements/mariadb-common/os-refresh-config/pre-configure.d/50-mariadb-socket
elements/mariadb-dev/element-provides
elements/mariadb-dev/environment.d/20-mariadb
elements/mariadb-dev/install.d/03-mariadb-dev
elements/mariadb-dev/pre-install.d/05-mysql-mariadb-repo
elements/mariadb-dev-rdo/element-deps
elements/mariadb-dev-rdo/element-provides
elements/mariadb-dev-rdo/install.d/03-mariadb-dev
elements/mariadb-dev-rdo/install.d/03-mariadb-rdo-dev
elements/mariadb-dev-rpm/element-provides
elements/mariadb-dev-rpm/install.d/03-mariadb-rpm-dev
elements/mariadb/element-deps
elements/mariadb/element-provides
elements/mariadb/install.d/10-mariadb
elements/mariadb/install.d/10-mariadb-packages
elements/mariadb/os-refresh-config/configure.d/52-mariadb-init
elements/mariadb/os-refresh-config/post-configure.d/40-mariadb
elements/mariadb/os-refresh-config/pre-configure.d/50-mariadb-socket
elements/mariadb-rdo/element-deps
elements/mariadb-rdo/element-provides
elements/mariadb-rdo/install.d/10-mariadb-packages
elements/mariadb-rdo/install.d/10-mariadb-rdo-packages
elements/mariadb-rdo/os-refresh-config/configure.d/52-mariadb-rdo-init
elements/mariadb-rpm/element-deps
elements/mariadb-rpm/element-provides
elements/mariadb-rpm/install.d/10-mariadb-rpm-packages
elements/mariadb-rpm/os-refresh-config/configure.d/52-mariadb-rpm-init
elements/mariadb-rpm/pkg-map
elements/mellanox/init
elements/mellanox/udev/81-mellanox-drivers.rules
elements/memcached/install.d/74-memcached
elements/multipath/files/multipath.conf
elements/multipath/install.d/90-multipath
elements/multipath/pkg-map
elements/mysql-common/element-deps
elements/mysql-common/install.d/11-python-mysqldb
elements/mysql-common/install.d/mysql-set-server-id.upstart
elements/mysql-common/os-apply-config/mnt/state/etc/mysql/conf.d/cluster.cnf
elements/mysql-common/os-apply-config/mnt/state/etc/mysql/dbusers.json
elements/mysql-common/os-apply-config/mnt/state/etc/mysql/debian.cnf
elements/mysql-common/os-apply-config/mnt/state/etc/mysql/my.cnf
elements/mysql-common/os-apply-config/mnt/state/etc/mysql/passthru.cnf
elements/mysql-common/os-apply-config/mnt/state/etc/mysql/static-dbusers.json
elements/mysql-common/os-apply-config/mnt/state/root/metadata.my.cnf
elements/mysql-common/os-config-applier/mnt/state/etc/mysql/conf.d/cluster.cnf
elements/mysql-common/os-config-applier/mnt/state/etc/mysql/dbusers.json
elements/mysql-common/os-config-applier/mnt/state/etc/mysql/debian.cnf
elements/mysql-common/os-config-applier/mnt/state/etc/mysql/my.cnf
elements/mysql-common/os-config-applier/mnt/state/etc/mysql/passthru.cnf
elements/mysql-common/os-config-applier/mnt/state/etc/mysql/static-dbusers.json
elements/mysql-common/os-config-applier/mnt/state/root/metadata.my.cnf
elements/mysql-common/os-refresh-config/configure.d/51-mysql-server-id
elements/mysql-common/os-refresh-config/post-configure.d/10-mysql-permissions
elements/mysql-common/os-refresh-config/post-configure.d/50-mysql-users
elements/mysql-common/os-refresh-config/post-configure.d/60-mysql-secure
elements/mysql-common/os-refresh-config/pre-configure.d/97-mysql-galera-iptables
elements/mysql-common/os-refresh-config/pre-configure.d/97-mysql-iptables
elements/mysql-common/os-refresh-config/pre-configure.d/97-mysql-selinux
elements/mysql-dev/install.d/03-mysql-dev
elements/mysql/element-deps
elements/mysql/environment.d/20-percona
elements/mysql/first-boot.d/05-ipforwarding
elements/mysql/first-boot.d/10-ntp
elements/mysql/first-boot.d/50-mysql
elements/mysql/first-boot.d/defaults
elements/mysql/first-boot.d/my.cnf
elements/mysql/install.d/10-mysql
elements/mysql/install.d/20-galera-libssl-symlink
elements/mysql/install.d/50-user
elements/mysql/install.d/97-haveged
elements/mysql/install.d/99-clean-apt
elements/mysql/install.d/my.cnf
elements/mysql/install.d/mysql-set-server-id.upstart
elements/mysql-mariadb-compat/element-deps
elements/mysql-mariadb-compat/post-install.d/10-var-run-mysqld
elements/mysql-migration/element-deps
elements/mysql-migration/os-apply-config/etc/mysql/migration_default
elements/mysql-migration/os-apply-config/root/metadata.my.cnf
elements/mysql-migration/os-config-applier/etc/mysql/migration_default
elements/mysql-migration/os-config-applier/root/metadata.my.cnf
elements/mysql-migration/os-refresh-config/migration.d/10-bootstrap-mysql
elements/mysql/os-config-applier/etc/mysql/dbusers.json
elements/mysql/os-config-applier/etc/mysql/static-dbusers.json
elements/mysql/os-config-applier/mnt/state/etc/mysql/conf.d/xtradb-cluster.cnf
elements/mysql/os-config-applier/mnt/state/etc/mysql/dbusers.json
elements/mysql/os-config-applier/mnt/state/etc/mysql/debian.cnf
elements/mysql/os-config-applier/mnt/state/etc/mysql/my.cnf
elements/mysql/os-config-applier/mnt/state/etc/mysql/static-dbusers.json
elements/mysql/os-refresh-config/configure.d/51-mysql-init
elements/mysql/os-refresh-config/configure.d/52-mysql-init
elements/mysql/os-refresh-config/post-configure.d/40-mysql
elements/mysql/os-refresh-config/post-configure.d/50-mysql-users
elements/mysql/os-refresh-config/pre-configure.d/40-mysql
elements/mysql/os-refresh-config/pre-configure.d/50-mysql-install-db
elements/mysql/os-refresh-config/pre-configure.d/97-mysql-galera-iptables
elements/mysql/os-refresh-config/pre-configure.d/97-mysql-iptables
elements/mysql/os-refresh-config/pre-configure.d/97-mysql-selinux
elements/mysql/pre-install.d/50-percona-server
elements/mysql/source-repository-mysql
elements/nagios3/bin/refresh-nagios-from-nova
elements/nagios3/element-deps
elements/nagios3/install.d/17-nagios
elements/nagios3/install.d/nagios3-crontab
elements/nagios3/os-apply-config/etc/nagios3/nova_access_info
elements/nagios3/os-config-applier/etc/nagios3/nova_access_info
elements/nagios3/os-refresh-config/post-configure.d/17-nagios
elements/network-utils/bin/ensure-bridge
elements/network-utils/install.d/70-network-utils
elements/neutron-dhcp-agent/element-deps
elements/neutron-dhcp-agent/install.d/80-neutron-dhcp-agent
elements/neutron-dhcp-agent/install.d/neutron-package-install/80-neutron-dhcp-agent
elements/neutron-dhcp-agent/install.d/neutron-source-install/80-neutron-dhcp-agent
elements/neutron-dhcp-agent/os-refresh-config/post-configure.d/80-neutron-dhcp-agent
elements/neutron/element-deps
elements/neutron/environment.d/10-neutron-venv-dir.bash
elements/neutron/install.d/76-neutron
elements/neutron/install.d/99-neutronclient
elements/neutron/install.d/neutron-package-install/76-neutron
elements/neutron/install.d/neutron-source-install/76-neutron
elements/neutron-network-node/element-deps
elements/neutron-network-node/install.d/80-arping
elements/neutron-network-node/install.d/80-neutron-networking
elements/neutron-network-node/install.d/neutron-source-install/80-arping
elements/neutron-network-node/install.d/neutron-source-install/80-neutron-networking
elements/neutron-network-node/os-refresh-config/configure.d/80-neutron-networking
elements/neutron-network-node/os-refresh-config/post-configure.d/80-neutron-networking
elements/neutron-openvswitch-agent/bin/init-neutron-ovs
elements/neutron-openvswitch-agent/element-deps
elements/neutron-openvswitch-agent/install.d/80-init-neutron-ovs
elements/neutron-openvswitch-agent/install.d/80-neutron-openvswitch-agent
elements/neutron-openvswitch-agent/install.d/90-disable-upstart-network-interface-logging
elements/neutron-openvswitch-agent/install.d/neutron-package-install/80-neutron-openvswitch-agent
elements/neutron-openvswitch-agent/install.d/neutron-source-install/80-neutron-openvswitch-agent
elements/neutron-openvswitch-agent/neutron-ovs-agent-bin/init-neutron-ovs
elements/neutron-openvswitch-agent/os-refresh-config/configure.d/21-neutron-openvswitch-agent
elements/neutron-openvswitch-agent/os-refresh-config/configure.d/80-neutron-openvswitch-agent
elements/neutron-openvswitch-agent/os-refresh-config/post-configure.d/80-neutron-openvswitch-agent
elements/neutron/os-apply-config/etc/neutron/dhcp_agent.ini
elements/neutron/os-apply-config/etc/neutron/dnsmasq/dnsmasq-neutron.conf
elements/neutron/os-apply-config/etc/neutron/dnsmasq-neutron.conf
elements/neutron/os-apply-config/etc/neutron/l3_agent.ini
elements/neutron/os-apply-config/etc/neutron/metadata_agent.ini
elements/neutron/os-apply-config/etc/neutron/neutron.conf
elements/neutron/os-apply-config/etc/neutron/plugins/ml2/ml2_conf.ini
elements/neutron/os-apply-config/etc/neutron/plugins/openvswitch/ovs_neutron_plugin.ini
elements/neutron/os-apply-config/etc/neutron/rootwrap.conf
elements/neutron/os-config-applier/etc/neutron/api-paste.ini
elements/neutron/os-config-applier/etc/neutron/dhcp_agent.ini
elements/neutron/os-config-applier/etc/neutron/l3_agent.ini
elements/neutron/os-config-applier/etc/neutron/metadata_agent.ini
elements/neutron/os-config-applier/etc/neutron/neutron.conf
elements/neutron/os-config-applier/etc/neutron/plugins/ml2/ml2_conf.ini
elements/neutron/os-config-applier/etc/neutron/plugins/openvswitch/ovs_neutron_plugin.ini
elements/neutron/os-config-applier/etc/neutron/policy.json
elements/neutron/os-config-applier/etc/neutron/rootwrap.conf
elements/neutron/os-refresh-config/configure.d/10-neutron-state
elements/neutron/os-refresh-config/configure.d/20-neutron-selinux
elements/neutron/os-refresh-config/configure.d/90-neutron-db-sync
elements/neutron/os-refresh-config/pre-configure.d/97-fedora-neutron-iptables
elements/neutron-ovs-cleanup/element-deps
elements/neutron-ovs-cleanup/install.d/81-neutron-ovs-cleanup
elements/neutron-ovs-cleanup/install.d/neutron-ovs-cleanup.service
elements/neutron-ovs-cleanup/install.d/neutron-source-install/81-neutron-ovs-cleanup
elements/neutron-ovs-cleanup/install.d/neutron-source-install/neutron-ovs-cleanup.conf
elements/neutron-ovs-cleanup/install.d/neutron-source-install/neutron-ovs-cleanup.service
elements/neutron-ovs-cleanup/os-refresh-config/post-configure.d/81-neutron-ovs-cleanup
elements/neutron-server/element-deps
elements/neutron-server/install.d/80-neutron-server
elements/neutron-server/install.d/neutron-package-install/76-neutron
elements/neutron-server/install.d/neutron-source-install/80-neutron-server
elements/neutron-server/os-refresh-config/post-configure.d/79-neutron-server
elements/neutron-server/os-refresh-config/post-configure.d/80-neutron-server
elements/neutron/source-repository-neutron
elements/nfs-server/element-deps
elements/nfs-server/install.d/68-nfs-server
elements/nfs-server/os-apply-config/etc/exports
elements/nfs-server/os-refresh-config/post-configure.d/74-nfs-server
elements/nfs-server/os-refresh-config/pre-configure.d/97-nfs-iptables
elements/notcompute/element-deps
elements/notcompute/os-refresh-config/post-configure.d/99-refresh-completed
elements/nova-api/element-deps
elements/nova-api/install.d/05-nova-api
elements/nova-api/install.d/80-nova-api
elements/nova-api/install.d/nova-package-install/80-nova-api
elements/nova-api/install.d/nova-source-install/80-nova-api
elements/nova-api/os-refresh-config/configure.d/90-nova-db-sync
elements/nova-api/os-refresh-config/post-configure.d/80-nova-api
elements/nova-api/os-refresh-config/pre-configure.d/97-nova-api-fedora-iptables
elements/nova-api/upstart/nova-api.conf
elements/nova-baremetal/bin/filter-bootps
elements/nova-baremetal/element-deps
elements/nova-baremetal/install.d/75-filter-bootps-cronjob
elements/nova-baremetal/install.d/80-pxelinux
elements/nova-baremetal/install.d/81-nova-bm-services
elements/nova-baremetal/install.d/nova-package-install/81-nova-bm-services
elements/nova-baremetal/install.d/nova-package-install/82-nova-bm-deploy-helper-link
elements/nova-baremetal/install.d/nova-source-install/81-nova-bm-services
elements/nova-baremetal/os-apply-config/mnt/state/var/lib/nova/virtual-power-key
elements/nova-baremetal/os-refresh-config/configure.d/80-nova-baremetal
elements/nova-baremetal/os-refresh-config/configure.d/80-nova-baremetal-virtual-power-key
elements/nova-baremetal/os-refresh-config/configure.d/81-nat-metadata
elements/nova-baremetal/os-refresh-config/configure.d/82-nova-baremetal-selinux
elements/nova-baremetal/os-refresh-config/configure.d/90-nova-baremetal-db-sync
elements/nova-baremetal/os-refresh-config/post-configure.d/70-enable-iscsid
elements/nova-baremetal/os-refresh-config/post-configure.d/80-nova-baremetal
elements/nova-baremetal/os-refresh-config/pre-configure.d/97-fedora-nova-baremetal-iptables
elements/nova-compute/element-deps
elements/nova-compute/install.d/80-nova-compute
elements/nova-compute/install.d/nova-package-install/80-nova-compute
elements/nova-compute/install.d/nova-source-install/80-nova-compute
elements/nova-compute/os-refresh-config/post-configure.d/80-nova-compute
elements/nova/element-deps
elements/nova/environment.d/10-nova-venv-dir.bash
elements/nova/install.d/74-nova
elements/nova/install.d/nova-source-install/74-nova
elements/nova-ironic/element-deps
elements/nova-ironic/install.d/81-nova-ironic-driver
elements/nova-ironic/os-refresh-config/configure.d/80-ironic-ssh-power-key
elements/nova-ironic/os-refresh-config/configure.d/81-nat-metadata
elements/nova-ironic/post-install.d/81-nova-ironic-driver
elements/nova-kvm/element-deps
elements/nova-kvm/install.d/80-nova-kvm
elements/nova-kvm/install.d/81-nova-kvm
elements/nova-kvm/install.d/default_libvirt_bin
elements/nova-kvm/install.d/default_libvirtd
elements/nova-kvm/install.d/nova-package-install/80-nova-kvm
elements/nova-kvm/install.d/nova-source-install/80-nova-kvm
elements/nova-kvm/os-apply-config/etc/default/libvirt-bin
elements/nova-kvm/os-apply-config/etc/libvirt/libvirtd.conf
elements/nova-kvm/os-refresh-config/configure.d/80-nova-kvm
elements/nova-kvm/os-refresh-config/post-configure.d/80-libvirt-bin
elements/nova-novncproxy/element-deps
elements/nova-novncproxy/install.d/novnc-package-install/50-install-novnc
elements/nova-novncproxy/install.d/novnc-source-install/50-install-novnc
elements/nova-novncproxy/os-refresh-config/post-configure.d/81-nova-novncproxy
elements/nova-novncproxy/os-refresh-config/pre-configure.d/98-nova-novncproxy-fedora-iptables
elements/nova-novncproxy/source-repository-novnc
elements/nova/os-apply-config/etc/nova/api/nova-api.conf
elements/nova/os-apply-config/etc/nova/api-paste.ini
elements/nova/os-apply-config/etc/nova/cert/nova-cert.conf
elements/nova/os-apply-config/etc/nova/compute/nova-compute.conf
elements/nova/os-apply-config/etc/nova/conductor/nova-conductor.conf
elements/nova/os-apply-config/etc/nova/consoleauth/nova-consoleauth.conf
elements/nova/os-apply-config/etc/nova/logging.conf
elements/nova/os-apply-config/etc/nova/nova.conf
elements/nova/os-apply-config/etc/nova/policy.json
elements/nova/os-apply-config/etc/nova/scheduler/nova-scheduler.conf
elements/nova/os-config-applier/etc/nova/api-paste.ini
elements/nova/os-config-applier/etc/nova/logging.conf
elements/nova/os-config-applier/etc/nova/nova.conf
elements/nova/os-config-applier/etc/nova/policy.json
elements/nova/os-config-applier/etc/nova/rootwrap.conf
elements/nova/os-config-applier/etc/nova/rootwrap.d/api-metadata.filters
elements/nova/os-config-applier/etc/nova/rootwrap.d/baremetal-compute-ipmi.filters
elements/nova/os-config-applier/etc/nova/rootwrap.d/baremetal-deploy-helper.filters
elements/nova/os-config-applier/etc/nova/rootwrap.d/compute.filters
elements/nova/os-config-applier/etc/nova/rootwrap.d/network.filters
elements/nova/os-refresh-config/configure.d/10-nova-state
elements/nova/os-refresh-config/configure.d/20-nova-selinux
elements/nova/os-refresh-config/post-configure.d/10-nova-state
elements/nova/os-refresh-config/post-configure.d/74-nova
elements/nova/pre-install.d/00-disable-requiretty
elements/nova/pre-install.d/00-nova-disable-requiretty
elements/nova/source-repository-nova
elements/nova-vm/first-boot.d/05-ipforwarding
elements/nova-vm/first-boot.d/10-ntp
elements/nova-vm/first-boot.d/15-mysql
elements/nova-vm/first-boot.d/20-rabbitmq
elements/nova-vm/first-boot.d/30-keystone
elements/nova-vm/first-boot.d/31-keystone-data
elements/nova-vm/first-boot.d/32-keystone-endpoints
elements/nova-vm/first-boot.d/40-glance
elements/nova-vm/first-boot.d/50-nova
elements/nova-vm/first-boot.d/defaults
elements/nova-vm/install.d/05-controller-code-deps
elements/nova-vm/install.d/10-controller-openstack-deps
elements/nova-vm/install.d/20-dkms-iscsi
elements/nova-vm/install.d/99-clean-apt
elements/novnc/element-deps
elements/novnc/install.d/50-install-novnc
elements/novnc/install.d/novnc-package-install/50-install-novnc
elements/novnc/install.d/novnc-source-install/50-install-novnc
elements/novnc/source-repository-novnc
elements/ntp/element-deps
elements/ntp/install.d/50-ntp
elements/ntp/os-apply-config/etc/ntp.conf
elements/ntp/os-refresh-config/post-configure.d/50-ntp
elements/openstack-all/element-deps
elements/openstack-clients/bin/install-openstack-client
elements/openstack-clients/element-deps
elements/openstack-clients/environment.d/10-openstack-clients-venv-dir.bash
elements/openstack-clients/install.d/50-openstack-clients
elements/openstack-clients/install.d/51-ironicclient
elements/openstack-clients/install.d/51-openstack-clients
elements/openstack-clients/install.d/openstack-clients-package-install/51-openstack-clients
elements/openstack-clients/install.d/openstack-clients-source-install/51-openstack-clients
elements/openstack-clients/install.d/python-ceilomerclient-package-install/51-ceilomerclient
elements/openstack-clients/install.d/python-ceilomerclient-source-install/51-ceilometerclient
elements/openstack-clients/install.d/python-ceilometerclient-package-install/51-ceilometerclient
elements/openstack-clients/install.d/python-ceilometerclient-source-install/51-ceilometerclient
elements/openstack-clients/install.d/python-cinderclient-package-install/51-cinderclient
elements/openstack-clients/install.d/python-cinderclient-source-install/51-cinderclient
elements/openstack-clients/install.d/python-glanceclient-package-install/51-glanceclient
elements/openstack-clients/install.d/python-glanceclient-source-install/51-glanceclient
elements/openstack-clients/install.d/python-heatclient-package-install/51-heatclient
elements/openstack-clients/install.d/python-heatclient-source-install/51-heatclient
elements/openstack-clients/install.d/python-ironicclient-package-install/51-ironicclient
elements/openstack-clients/install.d/python-ironicclient-source-install/51-ironicclient
elements/openstack-clients/install.d/python-keystoneclient-package-install/51-keystoneclient
elements/openstack-clients/install.d/python-keystoneclient-source-install/51-keystoneclient
elements/openstack-clients/install.d/python-neutronclient-package-install/51-neutronclient
elements/openstack-clients/install.d/python-neutronclient-source-install/51-neutronclient
elements/openstack-clients/install.d/python-novaclient-package-install/51-novaclient
elements/openstack-clients/install.d/python-novaclient-source-install/51-novaclient
elements/openstack-clients/install.d/python-swiftclient-package-install/51-swiftclient
elements/openstack-clients/install.d/python-swiftclient-source-install/51-swiftclient
elements/openstack-clients/source-repository-clients
elements/openstack-db/element-deps
elements/openstack-db/first-boot.d/50-openstack-db
elements/openstack-db/install.d/50-openstack-db
elements/openstack-db/source-repository-openstack
elements/openstack-ssl/install.d/70-install-stunnel
elements/openstack-ssl/install.d/stunnel4.service
elements/openstack-ssl/os-apply-config/etc/ssl/from-heat.crt
elements/openstack-ssl/os-apply-config/etc/ssl/from-heat.key
elements/openstack-ssl/os-apply-config/etc/stunnel/from-heat.conf
elements/openstack-ssl/os-refresh-config/post-configure.d/70-restart-stunnel
elements/openstack-ssl/os-refresh-config/pre-configure.d/70-stunnel-permissions
elements/openvswitch-datapath/element-deps
elements/openvswitch-datapath/install.d/75-openvswitch-datapath
elements/openvswitch-datapath/pkg-map
elements/openvswitch/element-deps
elements/openvswitch/install.d/74-openvswitch
elements/openvswitch/pkg-map
elements/os-apply-config/element-deps
elements/os-apply-config/install.d/10-os-config-applier
elements/os-apply-config/install.d/11-create-template-root
elements/os-apply-config/install.d/99-install-config-templates
elements/os-apply-config/install.d/os-apply-config-package-install/10-os-apply-config
elements/os-apply-config/install.d/os-apply-config-package-install/10-os-config-applier
elements/os-apply-config/install.d/os-apply-config-source-install/10-os-apply-config
elements/os-apply-config/install.d/os-apply-config-source-install/10-os-config-applier
elements/os-apply-config/os-apply-config/.os-config-applier
elements/os-apply-config/os-config-applier/.os-config-applier
elements/os-apply-config/os-refresh-config/configure.d/20-os-apply-config
elements/os-apply-config/os-refresh-config/configure.d/50-os-apply-config
elements/os-apply-config/os-refresh-config/configure.d/50-os-config-applier
elements/os-collect-config/element-deps
elements/os-collect-config/install.d/10-os-collect-config
elements/os-collect-config/install.d/os-collect-config-package-install/10-os-collect-config
elements/os-collect-config/install.d/os-collect-config-source-install/10-os-collect-config
elements/os-collect-config/os-apply-config/etc/os-collect-config.conf
elements/os-collect-config/os-apply-config/etc/os-collect-config/os-collect-config.conf
elements/os-collect-config/source-repository-os-collect-config
elements/os-config-applier/element-deps
elements/os-config-applier/install.d/10-os-config-applier
elements/os-config-applier/install.d/50-os-config-applier
elements/os-config-applier/install.d/99-install-config-templates
elements/os-config-applier/os-config-applier/.os-config-applier
elements/os-config-applier/os-refresh-config/configure.d/50-os-config-applier
elements/os-is-bootstrap-host/bin/os-is-bootstrap-host
elements/os-refresh-config/element-deps
elements/os-refresh-config/install.d/01-os-refresh-config
elements/os-refresh-config/install.d/60-os-refresh-config-hup
elements/os-refresh-config/install.d/75-cfn-hup-cronjob
elements/os-refresh-config/install.d/99-os-refresh-config-install-scripts
elements/os-refresh-config/install.d/cfn-hup.conf
elements/os-refresh-config/install.d/cfn-hup-wrapper
elements/os-refresh-config/install.d/hooks.conf
elements/os-refresh-config/install.d/os-refresh-config-package-install/01-os-refresh-config
elements/os-refresh-config/install.d/os-refresh-config-package-install/10-os-refresh-config
elements/os-refresh-config/install.d/os-refresh-config-source-install/01-os-refresh-config
elements/os-refresh-config/install.d/os-refresh-config-source-install/10-os-refresh-config
elements/os-refresh-config/os-refresh-config/.git-keep-empty
elements/os-refresh-config/os-refresh-config/post-configure.d/99-refresh-completed
elements/os-refresh-config/source-repository-os-refresh-config
elements/os-svc-install/bin/os-db-create
elements/os-svc-install/bin/os-svc-daemon
elements/os-svc-install/bin/os-svc-enable
elements/os-svc-install/bin/os-svc-enable-upstart
elements/os-svc-install/bin/os-svc-install
elements/os-svc-install/bin/os-svc-restart
elements/os-svc-install/element-deps
elements/os-svc-install/__init__.py
elements/os-svc-install/install.d/04-os-svc-install
elements/os-svc-install/os-svc-install
elements/os-svc-install/pre-install.d/04-os-svc-install
elements/os-svc-install/source-repository-eventlet
elements/os-svc-install/tests/__init__.py
elements/os-svc-install/tests/test_os_svc_daemon.py
elements/os-svc-install/upstart/os-svc-enable.conf
elements/pacemaker/element-deps
elements/pacemaker/install.d/15-pacemaker
elements/pacemaker/os-apply-config/etc/corosync/service.d/pacemaker
elements/pacemaker/os-refresh-config/post-configure.d/15-pacemaker
elements/pacemaker/os-refresh-config/post-configure.d/16-base-opts-pacemaker
elements/pip-and-virtualenv/element-deps
elements/pip-and-virtualenv/install.d/get-pip-py-package-install/01-install-pip
elements/pip-and-virtualenv/install.d/get-pip-py-source-install/01-install-pip
elements/pip-and-virtualenv/source-repository-pip-and-virtualenv
elements/pip-manifest/bin/get-pip-manifest
elements/pip-manifest/bin/use-pip-manifest
elements/pip-manifest/bin/write-pip-manifest
elements/pip-manifest/cleanup.d/01-copy-pip-manifests
elements/pip-manifest/element-deps
elements/pip-manifest/environment.d/15-pip-manifests
elements/pip-manifest/extra-data.d/75-inject-pip-manifests
elements/pip-manifest/install.d/01-pip-manifest
elements/postfix/element-deps
elements/postfix/install.d/09-postfix
elements/postfix/install.d/59-postfix
elements/postfix/os-apply-config/etc/mailname
elements/postfix/os-apply-config/etc/postfix/main.cf
elements/postfix/os-config-applier/etc/mailname
elements/postfix/os-config-applier/etc/postfix/main.cf
elements/postfix/os-refresh-config/configure.d/59-postfix
elements/postfix/os-refresh-config/post-configure.d/59-postfix
elements/postfix/pre-install.d/09-postfix
elements/postfix/pre-install.d/59-postfix
elements/pypi-mirror/element-deps
elements/pypi-mirror/install.d/50-pypi-mirror
elements/pypi-mirror/source-repository-pypi-mirror
elements/pypi-openstack/post-install.d/00-unconfigure-openstack-pypi-mirror
elements/pypi-openstack/pre-install.d/00-configure-openstack-pypi-mirror
elements/qpidd/element-deps
elements/qpidd/install.d/20-qpidd
elements/qpidd/os-apply-config/etc/qpid/qpidd.acl
elements/qpidd/os-refresh-config/post-configure.d/73-qpidd
elements/quantum-api/first-boot.d/05-quantum-api
elements/quantum-api/first-boot.d/etc_init_quantum-api.conf
elements/quantum-api/install.d/05-quantum-api
elements/quantum/element-deps
elements/quantum/install.d/76-quantum
elements/quantum/install.d/99-quantumclient
elements/quantum-network-node/element-deps
elements/quantum-network-node/install.d/80-arping
elements/quantum-network-node/install.d/80-quantum-networking
elements/quantum-network-node/os-refresh-config/post-configure.d/80-quantum-networking
elements/quantum-openvswitch-agent/element-deps
elements/quantum-openvswitch-agent/install.d/80-quantum-openvswitch-agent
elements/quantum-openvswitch-agent/os-refresh-config/configure.d/80-quantum-openvswitch-agent
elements/quantum-openvswitch-agent/os-refresh-config/post-configure.d/80-quantum-openvswitch-agent
elements/quantum-openvswitch-agent/quantum-ovs-agent-bin/init-quantum-ovs
elements/quantum/os-config-applier/etc/quantum/api-paste.ini
elements/quantum/os-config-applier/etc/quantum/dhcp_agent.ini
elements/quantum/os-config-applier/etc/quantum/l3_agent.ini
elements/quantum/os-config-applier/etc/quantum/metadata_agent.ini
elements/quantum/os-config-applier/etc/quantum/plugins/openvswitch/ovs_quantum_plugin.ini
elements/quantum/os-config-applier/etc/quantum/policy.json
elements/quantum/os-config-applier/etc/quantum/quantum.conf
elements/quantum/os-config-applier/etc/quantum/rootwrap.conf
elements/quantum/os-refresh-config/post-configure.d/76-quantum
elements/quantum-server/element-deps
elements/quantum-server/install.d/80-quantum-server
elements/quantum-server/os-refresh-config/post-configure.d/80-quantum-server
elements/rabbitmq-server/element-deps
elements/rabbitmq-server/install.d/20-rabbitmq-server
elements/rabbitmq-server/os-apply-config/etc/rabbitmq/heat_password_handle
elements/rabbitmq-server/os-apply-config/etc/rabbitmq/heat_users.json
elements/rabbitmq-server/os-apply-config/etc/rabbitmq/rabbitmq.config
elements/rabbitmq-server/os-apply-config/etc/security/limits.d/rabbitmq_limits.conf
elements/rabbitmq-server/os-apply-config/mnt/state/var/lib/rabbitmq/.erlang.cookie
elements/rabbitmq-server/os-config-applier/etc/rabbitmq/heat_password_handle
elements/rabbitmq-server/os-config-applier/etc/rabbitmq/heat_users
elements/rabbitmq-server/os-config-applier/etc/rabbitmq/heat_users.json
elements/rabbitmq-server/os-config-applier/etc/rabbitmq/rabbitmq.config
elements/rabbitmq-server/os-config-applier/etc/rabbitmq/rabbitmq-env
elements/rabbitmq-server/os-config-applier/etc/rabbitmq/rabbitmq-env.conf
elements/rabbitmq-server/os-config-applier/etc/security/limits.d/rabbitmq_limits.conf
elements/rabbitmq-server/os-config-applier/mnt/state/var/lib/rabbitmq/.erlang.cookie
elements/rabbitmq-server/os-refresh-config/configure.d/20-rabbitmq-server-selinux
elements/rabbitmq-server/os-refresh-config/post-configure.d/40-rabbitmq
elements/rabbitmq-server/os-refresh-config/post-configure.d/50-rabbitmq-passwords
elements/rabbitmq-server/os-refresh-config/pre-configure.d/80-rabbitmq-cluster
elements/rabbitmq-server/os-refresh-config/pre-configure.d/97-rabbitmq-server-fedora-iptables
elements/rabbitmq-server/os-refresh-config/pre-configure.d/98-rabbitmq-iptables
elements/rally/elements-deps
elements/rally/environment.d/10-rally-venv-dir.bash
elements/rally/install.d/rally-source-install/51-rally
elements/rally/source-repository-rally
elements/rdo-release/pre-install.d/10-rdo-release-repo
elements/remove-serial-console/finalise.d/60-purge-serial-console
elements/remove-serial-console/install.d/99-purge-serial-console
elements/salt-master/install.d/10-salt-master
elements/salt-master/pre-install.d/10-salt-master
elements/salt-minion/install.d/10-salt-minion
elements/salt-minion/pre-install.d/10-salt-minion
elements/seed-stack-config/config.json
elements/seed-stack-config/element-deps
elements/seed-stack-config/install.d/01-seed-stack-config-hosts.conf
elements/seed-stack-config/install.d/01-seed-stack-config-manual-resolve.conf
elements/seed-stack-config/install.d/01-seed-stack-heat-metadata
elements/seed-stack-config/install.d/02-seed-stack-fedora
elements/seed-stack-config/os-apply-config/var/opt/seed-stack/masquerade
elements/seed-stack-config/os-refresh-config/post-configure.d/80-seedstack-masquerade
elements/selinux/bin/add-selinux-file-context
elements/selinux/bin/add-selinux-path-substitution
elements/selinux/bin/restore-selinux-file-context
elements/selinux/custom-policies/tripleo-selinux-nova.te
elements/selinux/custom-policies/tripleo-selinux-ssh.te
elements/selinux/install.d/00-install-and-load-selinux-policy
elements/selinux/install.d/100-install-custom-selinux-policies
elements/selinux/os-refresh-config/configure.d/20-compile-and-install-selinux-policies
elements/snmpd/element-deps
elements/snmpd/files/check_proc_open_files.py
elements/snmpd/files/snmp
elements/snmpd/install.d/67-snmpd
elements/snmpd/os-apply-config/etc/default/snmpd
elements/snmpd/os-apply-config/etc/snmp/snmpd.conf
elements/snmpd/os-refresh-config/post-configure.d/67-snmpd
elements/sosreport/cleanup.d/90-sos-tmp-plugins
elements/sosreport/environment.d/90-sos-plugins-env
elements/sosreport/extra-data.d/90-sos-plugins
elements/sosreport/install.d/65-sosreport
elements/sosreport/pkg-map
elements/squid/element-deps
elements/squid/install.d/30-squid
elements/squid/os-apply-config/etc/squid/squid.conf
elements/squid/os-refresh-config/post-configure.d/80-squid
elements/squid/os-refresh-config/pre-configure.d/97-squid-iptables
elements/ssl-ca/os-apply-config/etc/ssl/from-heat-ca.crt
elements/ssl-ca/os-refresh-config/configure.d/51-ssl-load-ca-certs
elements/stackuser/install.d/50-user
elements/swift/element-deps
elements/swift/environment.d/10-swift-venv-dir.bash
elements/swift/install.d/10-swift-deps
elements/swift/install.d/75-swift
elements/swift/install.d/swift-package-install/75-swift
elements/swift/install.d/swift-source-install/75-swift
elements/swift/os-apply-config/etc/swift/swift.conf
elements/swift/os-config-applier/etc/swift/swift.conf
elements/swift/os-refresh-config/configure.d/73-swift
elements/swift-proxy/element-deps
elements/swift-proxy/install.d/76-swift-proxy
elements/swift-proxy/install.d/swift-package-install/76-swift-proxy
elements/swift-proxy/install.d/swift-source-install/76-swift-proxy
elements/swift-proxy/os-apply-config/etc/swift/proxy-server.conf
elements/swift-proxy/os-config-applier/etc/swift/proxy-server.conf
elements/swift-proxy/os-refresh-config/post-configure.d/74-swift-proxy
elements/swift/source-repository-swift
elements/swift-storage/element-deps
elements/swift-storage/install.d/76-swift-dirs
elements/swift-storage/install.d/76-swift-storage
elements/swift-storage/install.d/76-swift-storage-common
elements/swift-storage/install.d/swift-package-install/76-swift-storage
elements/swift-storage/install.d/swift-source-install/76-swift-storage
elements/swift-storage/os-apply-config/etc/rsyncd.conf
elements/swift-storage/os-apply-config/etc/swift/account-server.conf
elements/swift-storage/os-apply-config/etc/swift/container-server.conf
elements/swift-storage/os-apply-config/etc/swift/object-server.conf
elements/swift-storage/os-config-applier/etc/rsyncd.conf
elements/swift-storage/os-config-applier/etc/swift/account-server.conf
elements/swift-storage/os-config-applier/etc/swift/container-server.conf
elements/swift-storage/os-config-applier/etc/swift/object-server.conf
elements/swift-storage/os-refresh-config/configure.d/10-swift-storage-state
elements/swift-storage/os-refresh-config/configure.d/15-swift-storage-location
elements/swift-storage/os-refresh-config/configure.d/20-swift-storage-selinux
elements/swift-storage/os-refresh-config/post-configure.d/74-swift-storage
elements/sysctl/bin/sysctl-append-value
elements/sysctl/bin/sysctl-set-value
elements/sysctl/bin/sysctl-write-value
elements/sysctl/element-deps
elements/sysctl/install.d/10-sysctl-install
elements/sysctl/os-refresh-config/configure.d/10-sysctl-apply-config
elements/tempest/bin/run-tempest
elements/tempest/element-deps
elements/tempest/environment.d/10-tempest-venv-dir.bash
elements/tempest/install.d/51-tempest
elements/tempest/source-repository-tempest
elements/tempest/tests2skip.py
elements/tempest/tests2skip.txt
elements/tripleo-cd/bin/deploy-testenv
elements/tripleo-cd/bin/prepare-ci-overcloud
elements/tripleo-cd/bin/tripleo-cd.sh
elements/tripleo-cd/configs/hp1_ci_env.json
elements/tripleo-cd/configs/hp1_networks.json
elements/tripleo-cd/configs/hp1_uc_env.json
elements/tripleo-cd/configs/te_commonrc
elements/tripleo-cd/configs/te_hp1rc
elements/tripleo-cd/configs/te_localrc
elements/tripleo-cd/configs/te_rh1rc
elements/tripleo-cd/deploy-ci-overcloud
elements/tripleo-cd/element-deps
elements/tripleo-cd/install.d/10-tripleo-cd
elements/tripleo-cd/source-repository-tripleo-incubator
elements/tripleo-cd/tripleo-cd.sh
elements/tripleo-heat-templates/element-deps
elements/tripleo-heat-templates/source-repository-tripleo-heat-templates
elements/tripleo-staging/pre-install.d/01-bleeding-edge
elements/trove-api/element-deps
elements/trove-api/install.d/trove-source-install/80-trove-api
elements/trove-api/os-apply-config/etc/trove/api-paste.ini
elements/trove-api/os-apply-config/etc/trove/guestagent_image
elements/trove-api/os-apply-config/etc/trove/trove.conf
elements/trove-api/os-refresh-config/post-configure.d/82-trove-api
elements/trove-api/os-refresh-config/post-configure.d/83-trove-update-image
elements/trove-api/os-refresh-config/pre-configure.d/99-trove-api-fedora-iptables
elements/trove/element-deps
elements/trove/environment.d/10-trove-venv-dir.bash
elements/trove/install.d/trove-source-install/77-trove
elements/trove/os-refresh-config/configure.d/16-trove-state
elements/trove/source-repository-trove
elements/tuskar/element-deps
elements/tuskar/environment.d/10-tuskar-venv-dir.bash
elements/tuskar/install.d/100-tuskar-api
elements/tuskar/os-apply-config/etc/tuskar/nova_overcloud_config.yml
elements/tuskar/os-apply-config/etc/tuskar/tuskar.conf
elements/tuskar/os-config-applier/etc/tuskar/nova_overcloud_config.yml
elements/tuskar/os-config-applier/etc/tuskar/tuskar.conf
elements/tuskar/os-refresh-config/configure.d/90-tuskar-db-sync
elements/tuskar/os-refresh-config/post-configure.d/100-tuskar-api
elements/tuskar/source-repository-tuskar
elements/ubuntu/element-deps
elements/ubuntu/root.d/10-cache-ubuntu-tarball
elements/use-ephemeral/bin/register-state-path
elements/use-ephemeral/element-deps
elements/use-ephemeral/os-refresh-config/pre-configure.d/00-fix-ephemeral-mount
elements/use-ephemeral/os-refresh-config/pre-configure.d/01-setup-stateful-paths
elements/vm/block-device.d/10-partition
elements/vm/install.d/51-grub
flavours/baremetal/binary-deps
flavours/baremetal/init
flavours/base/install.d/10-cloud-init
flavours/deploy/binary-deps
flavours/deploy/init
flavours/devstack/block-device-size.d/10-size
flavours/devstack/install.d/50-user
flavours/devstack/install.d/51-grub
flavours/devstack/install.d/52-image-toolchain
flavours/devstack/install.d/97-haveged
flavours/devstack/install.d/98-baremetal-network
flavours/devstack/install.d/99-ssh
flavours/hwburnin/binary-deps
flavours/hwburnin/init
flavours/hwdiscovery/binary-deps
flavours/hwdiscovery/init
flavours/hwdiscovery/install.d/10-AMQPLib
flavours/hwdiscovery/install.d/10-hwinfo
flavours/jenkins/first-boot.d/10-jenkins
flavours/jenkins/install.d/10-jenkins
flavours/jenkins/install.d/11-jenkins-plugins
flavours/jenkins/install.d/20-httpproxy
flavours/jenkins/install.d/defaults
flavours/jenkins/install.d/httpproxy.jenkins
flavours/jenkins/pre-install.d/10-jenkins
flavours/local-config/extra-data.d/62-ssh-key
flavours/local-config/install.d/61-http-proxy
flavours/local-config/install.d/62-ssh-key
flavours/mellanox/init
flavours/mellanox/udev/81-mellanox-drivers.rules
flavours/mysql/first-boot.d/05-ipforwarding
flavours/mysql/first-boot.d/10-ntp
flavours/mysql/first-boot.d/50-mysql
flavours/mysql/first-boot.d/defaults
flavours/mysql/first-boot.d/my.cnf
flavours/mysql/install.d/10-mysql
flavours/mysql/install.d/50-user
flavours/mysql/install.d/97-haveged
flavours/mysql/install.d/99-clean-apt
flavours/mysql/pre-install.d/50-percona-server
flavours/nova-vm/first-boot.d/05-ipforwarding
flavours/nova-vm/first-boot.d/10-ntp
flavours/nova-vm/first-boot.d/15-mysql
flavours/nova-vm/first-boot.d/20-rabbitmq
flavours/nova-vm/first-boot.d/30-keystone
flavours/nova-vm/first-boot.d/31-keystone-data
flavours/nova-vm/first-boot.d/32-keystone-endpoints
flavours/nova-vm/first-boot.d/40-glance
flavours/nova-vm/first-boot.d/50-nova
flavours/nova-vm/first-boot.d/defaults
flavours/nova-vm/install.d/05-controller-code-deps
flavours/nova-vm/install.d/10-controller-openstack-deps
flavours/nova-vm/install.d/20-dkms-iscsi
flavours/nova-vm/install.d/99-clean-apt
flavours/salt/install.d/10-salt
flavours/salt-master/10-salt-master
flavours/salt-master/install.d/10-salt-master
flavours/salt-master/pre-install.d/10-salt-master
flavours/salt-minion/install.d/10-salt-minion
flavours/salt-minion/pre-install.d/10-salt-minion
flavours/salt/pre-install.d/10-salt
flavours/swift/install.d/10-swift-deps
flavours/vm/block-device.d/10-partition
lib/common-functions
lib/die
lib/img-defaults
lib/img-functions
lib/ramdisk-defaults
lib/ramdisk-functions
LICENSE
MANIFEST.in
phy-mkinitrd.sh
README.md
requirements.txt
scripts/d/init-func
scripts/init
scripts/init-end
setup.cfg
setup.py
sudoers.d/img-build-sudoers
.testr.conf
test-requirements.txt
tests/base.py
tests/__init__.py
tests/test_no_dup_filenames.py
tools/test-requires
tox.ini
udev/firmware.sh
udev/rules.d/50-firmware.rules
udev/rules.d/80-drivers.rules
